test/resources/V1_5/boundaryLine.xml
<?xml version="1.0" encoding="UTF-8"?>
<iidm:network xmlns:iidm="http://www.powsybl.org/schema/iidm/1_5" id="sim1" caseDate="2013-01-15T18:45:00+01:00" forecastDistance="0" sourceFormat="test">
    <iidm:substation id="P2" country="FR" tso="RTE" geographicalTags="B">
        <iidm:voltageLevel id="VLHV2" nominalV="380" topologyKind="BUS_BREAKER">
            <iidm:busBreakerTopology>
                <iidm:bus id="NHV2" v="389.95267639160159" angle="-3.5063576698303223"/>
            </iidm:busBreakerTopology>
            <iidm:danglingLine id="NHV1_NHV2_1" p0="-300.43389892578125" q0="-137.18849182128906" r="1.5" x="16.5" g="0" b="0.000193" bus="NHV2" connectableBus="NHV2" p="-300.43389892578125" q="-137.18849182128906"/>
            <iidm:danglingLine id="NHV1_NHV2_2" p0="-300.43389892578125" q0="-137.18849182128906" r="1.5" x="16.5" g="0" b="0.000193" bus="NHV2" connectableBus="NHV2" p="-300.43389892578125" q="-137.18849182128906"/>
        </iidm:voltageLevel>
        <iidm:voltageLevel id="VLLOAD" nominalV="150" topologyKind="BUS_BREAKER">
            <iidm:busBreakerTopology>
                <iidm:bus id="NLOAD" v="147.57861328125" angle="-9.6144866943359375"/>
            </iidm:busBreakerTopology>
            <iidm:load id="LOAD" loadType="UNDEFINED" p0="600" q0="200" bus="NLOAD" connectableBus="NLOAD" p="600" q="200"/>
        </iidm:voltageLevel>
        <iidm:twoWindingsTransformer id="NHV2_NLOAD" r="0.047249999999999993" x="4.0497243656204551" g="0" b="0" ratedU1="400" ratedU2="158" bus1="NHV2" connectableBus1="NHV2" voltageLevelId1="VLHV2" bus2="NLOAD" connectableBus2="NLOAD" voltageLevelId2="VLLOAD" p1="600.8677978515625" q1="274.37698364257" p2="-600" q2="-200">
            <iidm:ratioTapChanger lowTapPosition="0" tapPosition="1" targetDeadband="0" loadTapChangingCapabilities="true" regulating="true" targetV="158">
                <iidm:terminalRef id="NHV2_NLOAD" side="TWO"/>
                <iidm:step r="0" x="0" g="0" b="0" rho="0.85056669052441913"/>
                <iidm:step r="0" x="0" g="0" b="0" rho="1.0006666666666666"/>
                <iidm:step r="0" x="0" g="0" b="0" rho="1.1507666428089141"/>
            </iidm:ratioTapChanger>
        </iidm:twoWindingsTransformer>
    </iidm:substation>
</iidm:network>
